*SPEF "1481-1998"
*DESIGN "i2c_master_top"
*DATE "Fri May 10 18:36:26 2024"
*VENDOR "Synopsys, Inc."
*PROGRAM "icc2 /eda/synopsys/icc2/V-2023.12/linux64/nwtn/bin/icc2_exec"
*VERSION "V-2023.12 Nov 23, 2023"
*DESIGN_FLOW "ICC2 SPEF DR"
*DIVIDER /
*DELIMITER :
*BUS_DELIMITER [ ]
*T_UNIT 1 NS
*C_UNIT 1 FF
*R_UNIT 1 OHM
*L_UNIT 1 HENRY

// XY_UNIT 1 UM
// PARASITIC_TECH maxTLU at -40.000 degree

*NAME_MAP
*1 wb_clk_i
*2 wb_rst_i
*3 arst_i
*4 wb_adr_i[2]
*5 wb_adr_i[1]
*6 wb_adr_i[0]
*7 wb_dat_i[7]
*8 wb_dat_i[6]
*9 wb_dat_i[5]
*10 wb_dat_i[4]
*11 wb_dat_i[3]
*12 wb_dat_i[2]
*13 wb_dat_i[1]
*14 wb_dat_i[0]
*15 wb_dat_o[7]
*16 wb_dat_o[6]
*17 wb_dat_o[5]
*18 wb_dat_o[4]
*19 wb_dat_o[3]
*20 wb_dat_o[2]
*21 wb_dat_o[1]
*22 wb_dat_o[0]
*23 wb_we_i
*24 wb_stb_i
*25 wb_cyc_i
*26 wb_ack_o
*27 wb_inta_o
*28 scl_pad_i
*29 scl_pad_o
*30 scl_padoen_o
*31 sda_pad_i
*32 sda_pad_o
*33 sda_padoen_o
*34 VDD
*35 VSS
*36 ctr_reg_7_
*37 ctr_reg_6_
*38 ctr_reg_5_
*39 ctr_reg_4_
*40 ctr_reg_3_
*41 ctr_reg_2_
*42 ctr_reg_1_
*43 ctr_reg_0_
*44 txr_reg_7_
*45 txr_reg_6_
*46 txr_reg_5_
*47 txr_reg_4_
*48 txr_reg_3_
*49 txr_reg_2_
*50 txr_reg_1_
*51 txr_reg_0_
*52 prer_reg_15_
*53 prer_reg_14_
*54 prer_reg_13_
*55 prer_reg_12_
*56 prer_reg_11_
*57 prer_reg_10_
*58 prer_reg_9_
*59 prer_reg_8_
*60 prer_reg_7_
*61 prer_reg_6_
*62 prer_reg_5_
*63 prer_reg_4_
*64 prer_reg_3_
*65 prer_reg_2_
*66 prer_reg_1_
*67 prer_reg_0_
*68 cr_reg_7_
*69 cr_reg_6_
*70 wb_dat_o_reg_6_
*71 cr_reg_5_
*72 cr_reg_4_
*73 wb_dat_o_reg_4_
*74 wb_dat_o_reg_3_
*75 cr_reg_2_
*76 wb_dat_o_reg_2_
*77 cr_reg_1_
*78 cr_reg_0_
*79 al_reg
*80 wb_dat_o_reg_5_
*81 rxack_reg
*82 wb_dat_o_reg_7_
*83 tip_reg
*84 wb_dat_o_reg_1_
*85 irq_flag_reg
*86 wb_dat_o_reg_0_
*87 wb_inta_o_reg
*88 U166
*89 U167
*90 U168
*91 U169
*92 U170
*93 U171
*94 U172
*95 U173
*96 U174
*97 U175
*98 U176
*99 U177
*100 U178
*101 U179
*102 U180
*103 U181
*104 U182
*105 U183
*106 U184
*107 U185
*108 U186
*109 U187
*110 U188
*111 U189
*112 U190
*113 U192
*114 U193
*115 U194
*116 U195
*117 U196
*118 U197
*119 U198
*120 U199
*121 U200
*122 U201
*123 U202
*124 U203
*125 U204
*126 U205
*127 U206
*128 U207
*129 U208
*130 U209
*131 U210
*132 U211
*133 U212
*134 U213
*135 U214
*136 U215
*137 U216
*138 U217
*139 U218
*140 U219
*141 U220
*142 U221
*143 U222
*144 U223
*145 U224
*146 U225
*147 U226
*148 U227
*149 U228
*150 U229
*151 U230
*152 U231
*153 U232
*154 U233
*155 U234
*156 U235
*157 U236
*158 U237
*159 U238
*160 U239
*161 U240
*162 U241
*163 U242
*164 U243
*165 U244
*166 U245
*167 U246
*168 U247
*169 U248
*170 U249
*171 U250
*172 U251
*173 wb_ack_o_reg
*174 cr_reg_3_
*175 byte_controller/bit_controller/ctmTdsLR_1_286
*176 ZCTSBUF_3090_1295
*177 U254
*178 U255
*179 U256
*180 U257
*181 U258
*182 U259
*183 U260
*184 U261
*185 U262
*186 U263
*187 U264
*188 U265
*189 U266
*190 U267
*191 U268
*192 U269
*193 U270
*194 U271
*195 U272
*196 U273
*197 byte_controller/ld_reg
*198 byte_controller/sr_reg_1_
*199 byte_controller/sr_reg_2_
*200 byte_controller/sr_reg_3_
*201 byte_controller/sr_reg_4_
*202 byte_controller/sr_reg_5_
*203 byte_controller/sr_reg_6_
*204 byte_controller/sr_reg_7_
*205 byte_controller/core_txd_reg
*206 byte_controller/shift_reg
*207 byte_controller/sr_reg_0_
*208 byte_controller/dcnt_reg_0_
*209 byte_controller/dcnt_reg_1_
*210 byte_controller/dcnt_reg_2_
*211 byte_controller/c_state_reg_1_
*212 byte_controller/c_state_reg_4_
*213 byte_controller/cmd_ack_reg
*214 byte_controller/core_cmd_reg_1_
*215 byte_controller/core_cmd_reg_0_
*216 byte_controller/c_state_reg_2_
*217 byte_controller/c_state_reg_3_
*218 byte_controller/core_cmd_reg_2_
*219 byte_controller/core_cmd_reg_3_
*220 byte_controller/ack_out_reg
*221 byte_controller/U53
*222 byte_controller/U54
*223 byte_controller/U55
*224 byte_controller/U56
*225 byte_controller/U57
*226 byte_controller/U58
*227 byte_controller/U59
*228 byte_controller/U60
*229 byte_controller/U61
*230 byte_controller/U62
*231 byte_controller/U63
*232 byte_controller/U64
*233 byte_controller/U65
*234 byte_controller/U66
*235 byte_controller/U67
*236 byte_controller/U68
*237 HFSINV_1420_307
*238 HFSBUF_480_308
*239 byte_controller/U71
*240 byte_controller/U72
*241 byte_controller/U73
*242 byte_controller/U74
*243 byte_controller/U75
*244 byte_controller/U76
*245 byte_controller/U77
*246 byte_controller/U78
*247 byte_controller/U79
*248 byte_controller/U80
*249 byte_controller/U83
*250 byte_controller/U84
*251 byte_controller/U85
*252 byte_controller/bit_controller/ctmTdsLR_1_301
*253 byte_controller/ctmTdsLR_1_302
*254 byte_controller/U88
*255 byte_controller/ctmTdsLR_1_294
*256 byte_controller/bit_controller/ctmTdsLR_1_295
*257 byte_controller/bit_controller/ctmTdsLR_2_296
*258 byte_controller/U92
*259 byte_controller/U93
*260 byte_controller/U94
*261 byte_controller/U95
*262 byte_controller/U96
*263 byte_controller/U97
*264 byte_controller/U98
*265 byte_controller/U99
*266 byte_controller/U100
*267 byte_controller/U101
*268 byte_controller/U102
*269 byte_controller/c_state_reg_0_
*270 HFSBUF_126_309
*271 byte_controller/bit_controller/HFSBUF_275_310
*272 byte_controller/U5
*273 byte_controller/U6
*274 byte_controller/U7
*275 byte_controller/U8
*276 byte_controller/U9
*277 HFSBUF_678_311
*278 byte_controller/U12
*279 byte_controller/U14
*280 byte_controller/U15
*281 byte_controller/U16
*282 byte_controller/U17
*283 byte_controller/U18
*284 byte_controller/U19
*285 byte_controller/U20
*286 byte_controller/U21
*287 byte_controller/U22
*288 byte_controller/U23
*289 byte_controller/U24
*290 byte_controller/U25
*291 byte_controller/U26
*292 byte_controller/U27
*293 byte_controller/bit_controller/ctmTdsLR_1_297
*294 byte_controller/U29
*295 byte_controller/U30
*296 byte_controller/U31
*297 byte_controller/U32
*298 byte_controller/U33
*299 byte_controller/U34
*300 byte_controller/U35
*301 byte_controller/U36
*302 byte_controller/U37
*303 byte_controller/bit_controller/cSDA_reg_0_
*304 byte_controller/bit_controller/cSDA_reg_1_
*305 byte_controller/bit_controller/cSCL_reg_0_
*306 byte_controller/bit_controller/cSCL_reg_1_
*307 byte_controller/bit_controller/filter_cnt_reg_0_
*308 byte_controller/bit_controller/filter_cnt_reg_7_
*309 byte_controller/bit_controller/filter_cnt_reg_1_
*310 byte_controller/bit_controller/filter_cnt_reg_2_
*311 byte_controller/bit_controller/filter_cnt_reg_3_
*312 byte_controller/bit_controller/filter_cnt_reg_4_
*313 byte_controller/bit_controller/filter_cnt_reg_5_
*314 byte_controller/bit_controller/filter_cnt_reg_6_
*315 byte_controller/bit_controller/filter_cnt_reg_8_
*316 byte_controller/bit_controller/filter_cnt_reg_9_
*317 byte_controller/bit_controller/filter_cnt_reg_10_
*318 byte_controller/bit_controller/filter_cnt_reg_11_
*319 byte_controller/bit_controller/filter_cnt_reg_12_
*320 byte_controller/bit_controller/filter_cnt_reg_13_
*321 byte_controller/bit_controller/fSCL_reg_0_
*322 byte_controller/bit_controller/fSCL_reg_1_
*323 byte_controller/bit_controller/fSCL_reg_2_
*324 byte_controller/bit_controller/fSDA_reg_0_
*325 byte_controller/bit_controller/fSDA_reg_1_
*326 byte_controller/bit_controller/fSDA_reg_2_
*327 byte_controller/bit_controller/sSCL_reg
*328 byte_controller/bit_controller/dSCL_reg
*329 byte_controller/bit_controller/sSDA_reg
*330 byte_controller/bit_controller/dSDA_reg
*331 byte_controller/bit_controller/sta_condition_reg
*332 byte_controller/bit_controller/sto_condition_reg
*333 byte_controller/bit_controller/busy_reg
*334 byte_controller/bit_controller/dout_reg
*335 byte_controller/bit_controller/c_state_reg_0_
*336 byte_controller/bit_controller/scl_oen_reg
*337 byte_controller/bit_controller/dscl_oen_reg
*338 byte_controller/bit_controller/slave_wait_reg
*339 byte_controller/bit_controller/cnt_reg_0_
*340 byte_controller/bit_controller/clk_en_reg
*341 byte_controller/bit_controller/cmd_stop_reg
*342 byte_controller/bit_controller/c_state_reg_1_
*343 byte_controller/bit_controller/c_state_reg_2_
*344 byte_controller/bit_controller/c_state_reg_3_
*345 byte_controller/bit_controller/c_state_reg_4_
*346 byte_controller/bit_controller/c_state_reg_13_
*347 byte_controller/bit_controller/c_state_reg_14_
*348 byte_controller/bit_controller/c_state_reg_15_
*349 byte_controller/bit_controller/sda_chk_reg
*350 byte_controller/bit_controller/c_state_reg_16_
*351 byte_controller/bit_controller/c_state_reg_5_
*352 byte_controller/bit_controller/c_state_reg_6_
*353 byte_controller/bit_controller/c_state_reg_7_
*354 byte_controller/bit_controller/c_state_reg_8_
*355 byte_controller/bit_controller/c_state_reg_9_
*356 byte_controller/bit_controller/c_state_reg_10_
*357 byte_controller/bit_controller/c_state_reg_11_
*358 byte_controller/bit_controller/c_state_reg_12_
*359 byte_controller/bit_controller/sda_oen_reg
*360 byte_controller/bit_controller/al_reg
*361 byte_controller/bit_controller/cmd_ack_reg
*362 byte_controller/bit_controller/cnt_reg_15_
*363 byte_controller/bit_controller/cnt_reg_1_
*364 byte_controller/bit_controller/cnt_reg_2_
*365 byte_controller/bit_controller/cnt_reg_3_
*366 byte_controller/bit_controller/cnt_reg_4_
*367 byte_controller/bit_controller/cnt_reg_5_
*368 byte_controller/bit_controller/cnt_reg_6_
*369 byte_controller/bit_controller/cnt_reg_7_
*370 byte_controller/bit_controller/cnt_reg_8_
*371 byte_controller/bit_controller/cnt_reg_9_
*372 byte_controller/bit_controller/cnt_reg_10_
*373 byte_controller/bit_controller/cnt_reg_11_
*374 byte_controller/bit_controller/cnt_reg_12_
*375 byte_controller/bit_controller/cnt_reg_13_
*376 byte_controller/bit_controller/cnt_reg_14_
*377 byte_controller/bit_controller/U59
*378 byte_controller/bit_controller/U60
*379 byte_controller/bit_controller/U61
*380 byte_controller/bit_controller/U62
*381 byte_controller/bit_controller/U63
*382 byte_controller/bit_controller/U64
*383 byte_controller/ctmTdsLR_2_303
*384 byte_controller/ctmTdsLR_1_304
*385 byte_controller/ctmTdsLR_2_305
*386 byte_controller/bit_controller/U67
*387 copt_h_inst_1439
*388 copt_h_inst_1440
*389 byte_controller/bit_controller/U69
*390 byte_controller/bit_controller/U70
*391 byte_controller/bit_controller/U71
*392 byte_controller/bit_controller/U72
*393 byte_controller/bit_controller/U73
*394 byte_controller/bit_controller/U74
*395 byte_controller/bit_controller/U75
*396 byte_controller/bit_controller/U76
*397 byte_controller/bit_controller/U77
*398 byte_controller/bit_controller/U78
*399 byte_controller/bit_controller/U79
*400 byte_controller/bit_controller/U80
*401 byte_controller/bit_controller/U81
*402 byte_controller/ctmTdsLR_1_298
*403 byte_controller/bit_controller/ctmTdsLR_1_299
*404 byte_controller/bit_controller/U84
*405 byte_controller/bit_controller/U85
*406 byte_controller/bit_controller/U86
*407 byte_controller/bit_controller/U87
*408 byte_controller/bit_controller/U88
*409 byte_controller/bit_controller/U89
*410 byte_controller/bit_controller/U90
*411 byte_controller/bit_controller/U91
*412 byte_controller/bit_controller/U92
*413 byte_controller/bit_controller/U93
*414 byte_controller/bit_controller/U94
*415 byte_controller/bit_controller/U95
*416 byte_controller/bit_controller/U96
*417 byte_controller/bit_controller/U97
*418 byte_controller/bit_controller/U98
*419 byte_controller/bit_controller/U99
*420 byte_controller/bit_controller/U100
*421 byte_controller/bit_controller/U101
*422 byte_controller/bit_controller/U102
*423 byte_controller/bit_controller/U103
*424 byte_controller/bit_controller/U104
*425 byte_controller/bit_controller/U105
*426 byte_controller/bit_controller/U106
*427 byte_controller/bit_controller/U107
*428 byte_controller/bit_controller/ctmTdsLR_2_300
*429 byte_controller/bit_controller/U109
*430 byte_controller/bit_controller/U110
*431 byte_controller/bit_controller/U111
*432 byte_controller/bit_controller/U112
*433 ZCTSBUF_3532_1296
*434 ZCTSBUF_4664_1297
*435 byte_controller/bit_controller/U114
*436 byte_controller/bit_controller/U115
*437 byte_controller/bit_controller/U116
*438 byte_controller/bit_controller/U117
*439 byte_controller/bit_controller/U118
*440 byte_controller/bit_controller/U119
*441 byte_controller/bit_controller/U120
*442 byte_controller/bit_controller/U121
*443 byte_controller/bit_controller/U122
*444 byte_controller/ctmTdsLR_1_292
*445 byte_controller/bit_controller/ctmTdsLR_1_293
*446 ZCTSBUF_1727_1298
*447 byte_controller/bit_controller/ZCTSBUF_2625_1299
*448 byte_controller/bit_controller/ctmTdsLR_1_1438
*449 byte_controller/bit_controller/U129
*450 copt_h_inst_1441
*451 byte_controller/bit_controller/U131
*452 byte_controller/bit_controller/U132
*453 byte_controller/bit_controller/U133
*454 byte_controller/bit_controller/U134
*455 byte_controller/bit_controller/U135
*456 byte_controller/bit_controller/U136
*457 byte_controller/bit_controller/U137
*458 byte_controller/bit_controller/U138
*459 byte_controller/bit_controller/U139
*460 byte_controller/bit_controller/U140
*461 byte_controller/bit_controller/U141
*462 byte_controller/bit_controller/U142
*463 byte_controller/bit_controller/U143
*464 byte_controller/bit_controller/U144
*465 byte_controller/bit_controller/U145
*466 byte_controller/bit_controller/U146
*467 byte_controller/bit_controller/U147
*468 byte_controller/bit_controller/U148
*469 byte_controller/bit_controller/U149
*470 byte_controller/bit_controller/U150
*471 byte_controller/bit_controller/U151
*472 byte_controller/bit_controller/U152
*473 byte_controller/bit_controller/U155
*474 byte_controller/bit_controller/U156
*475 byte_controller/bit_controller/U157
*476 byte_controller/bit_controller/U158
*477 copt_h_inst_1442
*478 copt_h_inst_1443
*479 byte_controller/bit_controller/ctmTdsLR_2_288
*480 byte_controller/bit_controller/U9
*481 byte_controller/bit_controller/U10
*482 byte_controller/bit_controller/ctmTdsLR_3_289
*483 byte_controller/bit_controller/U12
*484 byte_controller/bit_controller/U13
*485 byte_controller/bit_controller/U14
*486 byte_controller/bit_controller/U15
*487 byte_controller/bit_controller/U16
*488 byte_controller/bit_controller/U17
*489 byte_controller/bit_controller/U18
*490 byte_controller/bit_controller/U19
*491 byte_controller/bit_controller/U20
*492 byte_controller/bit_controller/U21
*493 byte_controller/bit_controller/U22
*494 byte_controller/bit_controller/U23
*495 byte_controller/bit_controller/copt_h_inst_1444
*496 byte_controller/bit_controller/U25
*497 byte_controller/bit_controller/U26
*498 byte_controller/bit_controller/copt_h_inst_1445
*499 copt_h_inst_1446
*500 byte_controller/bit_controller/U29
*501 byte_controller/bit_controller/U31
*502 byte_controller/bit_controller/U32
*503 byte_controller/bit_controller/U33
*504 byte_controller/bit_controller/U34
*505 byte_controller/bit_controller/U35
*506 byte_controller/bit_controller/U36
*507 byte_controller/bit_controller/U37
*508 byte_controller/bit_controller/U38
*509 byte_controller/bit_controller/U39
*510 byte_controller/bit_controller/U40
*511 byte_controller/bit_controller/U41
*512 byte_controller/bit_controller/U42
*513 byte_controller/bit_controller/U43
*514 byte_controller/bit_controller/U44
*515 byte_controller/bit_controller/U45
*516 byte_controller/bit_controller/U46
*517 byte_controller/bit_controller/copt_h_inst_1447
*518 byte_controller/bit_controller/U48
*519 copt_h_inst_1448
*520 byte_controller/bit_controller/sub_260/U12
*521 byte_controller/bit_controller/sub_260/U13
*522 byte_controller/bit_controller/sub_260/U14
*523 byte_controller/bit_controller/sub_260/U15
*524 byte_controller/bit_controller/sub_260/U16
*525 byte_controller/bit_controller/sub_260/U17
*526 byte_controller/bit_controller/sub_260/U18
*527 byte_controller/bit_controller/sub_260/U19
*528 byte_controller/bit_controller/sub_260/U20
*529 byte_controller/bit_controller/sub_260/U21
*530 byte_controller/bit_controller/sub_260/U23
*531 byte_controller/bit_controller/sub_260/U24
*532 byte_controller/bit_controller/sub_260/U26
*533 byte_controller/bit_controller/sub_260/U1
*534 byte_controller/bit_controller/sub_260/U2
*535 byte_controller/bit_controller/sub_260/U3
*536 byte_controller/bit_controller/sub_260/U4
*537 byte_controller/bit_controller/sub_260/U5
*538 byte_controller/bit_controller/sub_260/U6
*539 byte_controller/bit_controller/sub_260/U7
*540 byte_controller/bit_controller/sub_260/U8
*541 byte_controller/bit_controller/sub_260/U9
*542 byte_controller/bit_controller/sub_260/U10
*543 byte_controller/bit_controller/sub_260/U11
*544 byte_controller/bit_controller/sub_260/U22
*545 byte_controller/bit_controller/sub_260/U25
*546 byte_controller/bit_controller/sub_260/U27
*547 byte_controller/bit_controller/sub_260/U28
*548 byte_controller/bit_controller/sub_260/U29
*549 byte_controller/bit_controller/sub_260/U30
*550 byte_controller/bit_controller/sub_260/U31
*551 byte_controller/bit_controller/sub_260/U32
*552 byte_controller/bit_controller/sub_260/U33
*553 byte_controller/bit_controller/sub_260/U34
*554 byte_controller/bit_controller/sub_260/U35
*555 byte_controller/bit_controller/sub_260/U36
*556 byte_controller/bit_controller/sub_260/U37
*557 byte_controller/bit_controller/sub_228/U14
*558 byte_controller/bit_controller/sub_228/U15
*559 byte_controller/bit_controller/sub_228/U16
*560 byte_controller/bit_controller/sub_228/U17
*561 byte_controller/bit_controller/sub_228/U18
*562 byte_controller/bit_controller/sub_228/U19
*563 byte_controller/bit_controller/sub_228/U20
*564 byte_controller/bit_controller/sub_228/U21
*565 byte_controller/bit_controller/sub_228/U22
*566 byte_controller/bit_controller/sub_228/U23
*567 byte_controller/bit_controller/sub_228/U25
*568 byte_controller/bit_controller/sub_228/U26
*569 byte_controller/bit_controller/sub_228/U28
*570 byte_controller/bit_controller/sub_228/U30
*571 byte_controller/bit_controller/sub_228/U32
*572 byte_controller/bit_controller/sub_228/U1
*573 byte_controller/bit_controller/sub_228/U2
*574 byte_controller/bit_controller/sub_228/U3
*575 byte_controller/bit_controller/sub_228/U4
*576 byte_controller/bit_controller/sub_228/U5
*577 byte_controller/bit_controller/sub_228/U6
*578 byte_controller/bit_controller/sub_228/U7
*579 byte_controller/bit_controller/sub_228/U8
*580 byte_controller/bit_controller/sub_228/U9
*581 byte_controller/bit_controller/sub_228/U10
*582 byte_controller/bit_controller/sub_228/U11
*583 byte_controller/bit_controller/sub_228/U12
*584 byte_controller/bit_controller/sub_228/U13
*585 byte_controller/bit_controller/sub_228/U24
*586 byte_controller/bit_controller/sub_228/U27
*587 byte_controller/bit_controller/sub_228/U29
*588 byte_controller/bit_controller/sub_228/U31
*589 byte_controller/bit_controller/sub_228/U33
*590 byte_controller/bit_controller/sub_228/U34
*591 byte_controller/bit_controller/sub_228/U35
*592 byte_controller/bit_controller/sub_228/U36
*593 byte_controller/bit_controller/sub_228/U37
*594 byte_controller/bit_controller/sub_228/U38
*595 byte_controller/bit_controller/sub_228/U39
*596 byte_controller/bit_controller/sub_228/U40
*597 byte_controller/bit_controller/sub_228/U41
*598 byte_controller/bit_controller/sub_228/U42
*599 byte_controller/bit_controller/sub_228/U43
*600 byte_controller/bit_controller/ctmTdsLR_4_290
*601 byte_controller/bit_controller/ctmTdsLR_5_291
*602 copt_h_inst_1449
*603 copt_h_inst_1450
*604 byte_controller/bit_controller/copt_h_inst_1451
*605 copt_h_inst_1452
*606 copt_h_inst_1453
*607 copt_h_inst_1454
*608 copt_h_inst_1455
*609 copt_h_inst_1456
*610 copt_h_inst_1457
*611 byte_controller/copt_h_inst_1459
*612 copt_h_inst_1460
*613 copt_h_inst_1461
*614 copt_h_inst_1462
*615 copt_h_inst_1463
*616 byte_controller/bit_controller/copt_h_inst_1464
*617 copt_h_inst_1465
*618 copt_h_inst_1466
*619 byte_controller/copt_h_inst_1467
*620 copt_h_inst_1468
*621 copt_h_inst_1469
*622 copt_h_inst_1470
*623 copt_h_inst_1471
*624 copt_h_inst_1472
*625 copt_h_inst_1473
*626 copt_h_inst_1474
*627 copt_h_inst_1475
*628 copt_h_inst_1476
*629 copt_h_inst_1477
*630 copt_h_inst_1478
*631 copt_h_inst_1479
*632 copt_h_inst_1480
*633 byte_controller/bit_controller/copt_h_inst_1481
*634 byte_controller/copt_h_inst_1482
*635 copt_h_inst_1483
*636 byte_controller/copt_h_inst_1484
*637 byte_controller/copt_h_inst_1485
*638 byte_controller/bit_controller/copt_h_inst_1486
*639 byte_controller/copt_h_inst_1487
*640 byte_controller/bit_controller/copt_h_inst_1488
*641 byte_controller/copt_h_inst_1489
*642 copt_h_inst_1490
*643 byte_controller/bit_controller/copt_h_inst_1491
*644 byte_controller/bit_controller/copt_h_inst_1492
*645 copt_h_inst_1493
*646 byte_controller/bit_controller/copt_h_inst_1494
*647 byte_controller/copt_h_inst_1495
*648 byte_controller/bit_controller/copt_h_inst_1496
*649 byte_controller/copt_h_inst_1497
*650 byte_controller/bit_controller/copt_h_inst_1498
*651 xofiller!SHFILL1!x0y0
*652 byte_controller/copt_h_inst_1500
*653 byte_controller/copt_h_inst_1501
*654 byte_controller/bit_controller/copt_h_inst_1502
*655 byte_controller/bit_controller/copt_h_inst_1503
*656 byte_controller/bit_controller/copt_h_inst_1504
*657 byte_controller/bit_controller/copt_h_inst_1505
*658 byte_controller/copt_h_inst_1506
*659 byte_controller/bit_controller/copt_h_inst_1507
*660 xofiller!SHFILL1!x128000y0
*661 xofiller!SHFILL1!x131200y0
*662 byte_controller/bit_controller/copt_h_inst_1509
*663 byte_controller/bit_controller/copt_h_inst_1510
*664 byte_controller/bit_controller/copt_h_inst_1511
*665 byte_controller/bit_controller/copt_h_inst_1512
*666 byte_controller/bit_controller/copt_h_inst_1513
*667 xofiller!SHFILL1!x134400y0
*668 xofiller!SHFILL1!x246400y0
*669 xofiller!SHFILL1!x249600y0
*670 xofiller!SHFILL1!x252800y0
*671 byte_controller/bit_controller/copt_h_inst_1516
*672 byte_controller/bit_controller/copt_h_inst_1517
*673 byte_controller/bit_controller/copt_h_inst_1518
*674 byte_controller/copt_h_inst_1519
*675 byte_controller/bit_controller/copt_h_inst_1520
*676 byte_controller/copt_h_inst_1521
*677 byte_controller/bit_controller/copt_h_inst_1522
*678 byte_controller/bit_controller/copt_h_inst_1523
*679 byte_controller/bit_controller/copt_h_inst_1524
*680 byte_controller/bit_controller/copt_h_inst_1525
*681 byte_controller/copt_h_inst_1526
*682 byte_controller/bit_controller/copt_h_inst_1527
*683 byte_controller/bit_controller/copt_h_inst_1528
*684 byte_controller/bit_controller/copt_h_inst_1529
*685 byte_controller/copt_h_inst_1530
*686 copt_h_inst_1531
*687 byte_controller/bit_controller/copt_h_inst_1532
*688 copt_h_inst_1533
*689 byte_controller/copt_h_inst_1534
*690 byte_controller/bit_controller/copt_h_inst_1535
*691 byte_controller/copt_h_inst_1536
*692 byte_controller/bit_controller/copt_h_inst_1537
*693 copt_h_inst_1538
*694 byte_controller/bit_controller/copt_gre_h_inst_1623
*695 byte_controller/copt_h_inst_1540
*696 byte_controller/bit_controller/copt_h_inst_1541
*697 copt_h_inst_1542
*698 copt_h_inst_1543
*699 copt_h_inst_1544
*700 copt_h_inst_1545
*701 copt_h_inst_1546
*702 copt_h_inst_1547
*703 copt_h_inst_1548
*704 copt_h_inst_1549
*705 copt_h_inst_1550
*706 byte_controller/copt_h_inst_1551
*707 copt_h_inst_1552
*708 copt_h_inst_1553
*709 copt_h_inst_1554
*710 byte_controller/bit_controller/copt_h_inst_1555
*711 byte_controller/bit_controller/copt_h_inst_1556
*712 copt_h_inst_1557
*713 byte_controller/bit_controller/copt_h_inst_1558
*714 byte_controller/copt_h_inst_1559
*715 byte_controller/bit_controller/copt_h_inst_1560
*716 byte_controller/bit_controller/copt_h_inst_1561
*717 byte_controller/copt_h_inst_1562
*718 byte_controller/bit_controller/copt_h_inst_1563
*719 byte_controller/bit_controller/copt_h_inst_1564
*720 byte_controller/bit_controller/copt_h_inst_1565
*721 byte_controller/bit_controller/copt_h_inst_1566
*722 xofiller!SHFILL1!x329600y0
*723 xofiller!SHFILL1!x332800y0
*724 byte_controller/copt_h_inst_1568
*725 byte_controller/bit_controller/copt_h_inst_1569
*726 byte_controller/bit_controller/copt_h_inst_1570
*727 byte_controller/bit_controller/copt_h_inst_1571
*728 byte_controller/bit_controller/copt_h_inst_1572
*729 byte_controller/bit_controller/copt_h_inst_1573
*730 byte_controller/bit_controller/copt_h_inst_1574
*731 byte_controller/bit_controller/copt_h_inst_1575
*732 byte_controller/bit_controller/copt_h_inst_1576
*733 byte_controller/bit_controller/copt_h_inst_1577
*734 byte_controller/bit_controller/copt_h_inst_1578
*735 copt_h_inst_1579
*736 byte_controller/bit_controller/copt_h_inst_1580
*737 byte_controller/copt_h_inst_1581
*738 byte_controller/bit_controller/copt_h_inst_1582
*739 byte_controller/bit_controller/copt_h_inst_1583
*740 byte_controller/copt_h_inst_1584
*741 xofiller!SHFILL1!x336000y0
*742 xofiller!SHFILL1!x339200y0
*743 byte_controller/bit_controller/copt_h_inst_1586
*744 byte_controller/bit_controller/copt_h_inst_1587
*745 byte_controller/copt_h_inst_1588
*746 byte_controller/copt_h_inst_1589
*747 byte_controller/bit_controller/copt_h_inst_1590
*748 byte_controller/copt_h_inst_1591
*749 byte_controller/bit_controller/copt_h_inst_1592
*750 byte_controller/bit_controller/copt_h_inst_1593
*751 byte_controller/bit_controller/copt_h_inst_1594
*752 byte_controller/copt_h_inst_1595
*753 copt_h_inst_1596
*754 byte_controller/bit_controller/copt_h_inst_1597
*755 byte_controller/bit_controller/copt_h_inst_1598
*756 byte_controller/copt_h_inst_1599
*757 byte_controller/bit_controller/copt_h_inst_1600
*758 byte_controller/bit_controller/copt_h_inst_1601
*759 byte_controller/bit_controller/copt_h_inst_1602
*760 byte_controller/bit_controller/sub_260/copt_h_inst_1603
*761 byte_controller/bit_controller/copt_h_inst_1604
*762 byte_controller/bit_controller/copt_h_inst_1605
*763 byte_controller/bit_controller/copt_h_inst_1606
*764 copt_h_inst_1607
*765 byte_controller/bit_controller/copt_h_inst_1608
*766 xofiller!SHFILL1!x342400y0
*767 xofiller!SHFILL1!x345600y0
*768 byte_controller/bit_controller/sub_260/copt_h_inst_1610
*769 byte_controller/copt_h_inst_1611
*770 xofiller!SHFILL1!x348800y0
*771 xofiller!SHFILL1!x432000y0
*772 byte_controller/copt_h_inst_1613
*773 byte_controller/bit_controller/copt_h_inst_1614
*774 byte_controller/copt_h_inst_1615
*775 byte_controller/bit_controller/copt_h_inst_1616
*776 byte_controller/copt_h_inst_1617
*777 byte_controller/bit_controller/copt_h_inst_1618
*778 byte_controller/bit_controller/copt_h_inst_1619
*779 byte_controller/copt_h_inst_1620
*780 xofiller!SHFILL1!x435200y0
*781 xofiller!SHFILL1!x438400y0
*782 byte_controller/bit_controller/copt_gre_h_inst_1624
*783 xofiller!SHFILL1!x460800y0
*784 xofiller!SHFILL1!x483200y0
*785 xofiller!SHFILL1!x486400y0
*786 xofiller!SHFILL1!x508800y0
*787 xofiller!SHFILL1!x512000y0
*788 xofiller!SHFILL1!x515200y0
*789 xofiller!SHFILL1!x563200y0
*790 xofiller!SHFILL1!x566400y0
*791 xofiller!SHFILL1!x569600y0
*792 xofiller!SHFILL1!x572800y0
*793 xofiller!SHFILL1!x576000y0
*794 xofiller!SHFILL1!x579200y0
*795 xofiller!SHFILL1!x691200y0
*796 xofiller!SHFILL1!x694400y0
*797 xofiller!SHFILL1!x697600y0
*798 xofiller!SHFILL1!x700800y0
*799 xofiller!SHFILL1!x704000y0
*800 xofiller!SHFILL1!x707200y0
*801 xofiller!SHFILL1!x710400y0
*802 xofiller!SHFILL1!x713600y0
*803 xofiller!SHFILL1!x768000y0
*804 xofiller!SHFILL1!x771200y0
*805 xofiller!SHFILL1!x774400y0
*806 xofiller!SHFILL1!x777600y0
*807 xofiller!SHFILL1!x892800y0
*808 xofiller!SHFILL1!x896000y0
*809 xofiller!SHFILL1!x899200y0
*810 xofiller!SHFILL1!x902400y0
*811 xofiller!SHFILL1!x905600y0
*812 xofiller!SHFILL1!x908800y0
*813 xofiller!SHFILL1!x912000y0
*814 xofiller!SHFILL1!x915200y0
*815 xofiller!SHFILL1!x918400y0
*816 xofiller!SHFILL1!x921600y0
*817 xofiller!SHFILL1!x924800y0
*818 xofiller!SHFILL1!x969600y0
*819 xofiller!SHFILL1!x972800y0
*820 xofiller!SHFILL1!x976000y0
*821 xofiller!SHFILL1!x979200y0
*822 xofiller!SHFILL1!x982400y0
*823 xofiller!SHFILL1!x985600y0
*824 xofiller!SHFILL1!x19200y28800
*825 xofiller!SHFILL1!x22400y28800
*826 xofiller!SHFILL1!x25600y28800
*827 xofiller!SHFILL1!x28800y28800
*828 xofiller!SHFILL1!x32000y28800
*829 xofiller!SHFILL1!x35200y28800
*830 xofiller!SHFILL1!x38400y28800
*831 xofiller!SHFILL1!x41600y28800
*832 xofiller!SHFILL1!x64000y28800
*833 xofiller!SHFILL1!x67200y28800
*834 xofiller!SHFILL1!x70400y28800
*835 xofiller!SHFILL1!x73600y28800
*836 xofiller!SHFILL1!x76800y28800
*837 xofiller!SHFILL1!x80000y28800
*838 xofiller!SHFILL1!x83200y28800
*839 xofiller!SHFILL1!x86400y28800
*840 xofiller!SHFILL1!x89600y28800
*841 xofiller!SHFILL1!x92800y28800
*842 xofiller!SHFILL1!x96000y28800
*843 xofiller!SHFILL1!x99200y28800
*844 xofiller!SHFILL1!x102400y28800
*845 xofiller!SHFILL1!x105600y28800
*846 xofiller!SHFILL1!x108800y28800
*847 xofiller!SHFILL1!x112000y28800
*848 xofiller!SHFILL1!x115200y28800
*849 xofiller!SHFILL1!x118400y28800
*850 xofiller!SHFILL1!x121600y28800
*851 xofiller!SHFILL1!x124800y28800
*852 xofiller!SHFILL1!x128000y28800
*853 xofiller!SHFILL1!x131200y28800
*854 xofiller!SHFILL1!x134400y28800
*855 xofiller!SHFILL1!x137600y28800
*856 xofiller!SHFILL1!x169600y28800
*857 xofiller!SHFILL1!x172800y28800
*858 xofiller!SHFILL1!x176000y28800
*859 xofiller!SHFILL1!x179200y28800
*860 xofiller!SHFILL1!x182400y28800
*861 xofiller!SHFILL1!x185600y28800
*862 xofiller!SHFILL1!x188800y28800
*863 xofiller!SHFILL1!x192000y28800
*864 xofiller!SHFILL1!x195200y28800
*865 xofiller!SHFILL1!x198400y28800
*866 xofiller!SHFILL1!x256000y28800
*867 xofiller!SHFILL1!x259200y28800
*868 xofiller!SHFILL1!x262400y28800
*869 xofiller!SHFILL1!x265600y28800
*870 xofiller!SHFILL1!x268800y28800
*871 xofiller!SHFILL1!x272000y28800
*872 xofiller!SHFILL1!x275200y28800
*873 xofiller!SHFILL1!x278400y28800
*874 xofiller!SHFILL1!x281600y28800
*875 xofiller!SHFILL1!x284800y28800
*876 xofiller!SHFILL1!x288000y28800
*877 xofiller!SHFILL1!x291200y28800
*878 xofiller!SHFILL1!x294400y28800
*879 xofiller!SHFILL1!x297600y28800
*880 xofiller!SHFILL1!x300800y28800
*881 xofiller!SHFILL1!x304000y28800
*882 xofiller!SHFILL1!x307200y28800
*883 xofiller!SHFILL1!x310400y28800
*884 xofiller!SHFILL1!x364800y28800
*885 xofiller!SHFILL1!x419200y28800
*886 xofiller!SHFILL1!x422400y28800
*887 xofiller!SHFILL1!x460800y28800